Circuit: * Z:\home\alexander\projects\QRemoteBox\spice\ism_en.asc

Direct Newton iteration for .op point succeeded.

Date: Sun Nov 17 12:05:14 2013
Total elapsed time: 0.079 seconds.

tnom = 27
temp = 27
method = modified trap
totiter = 5038
traniter = 5029
tranpoints = 2392
accept = 2142
rejected = 250
matrix size = 16
fillins = 0
solver = Normal
Matrix Compiler1: 868 bytes object code size  0.5/0.3/[0.3]
Matrix Compiler2: off  [0.3]/0.3/0.3


